Version 4
SHEET 1 880 680
WIRE 608 -48 0 -48
WIRE 0 48 0 -48
WIRE 64 48 0 48
WIRE 416 48 320 48
WIRE 512 48 416 48
WIRE 64 112 -32 112
WIRE -32 128 -32 112
WIRE 64 176 16 176
WIRE 368 176 320 176
WIRE 368 192 368 176
WIRE 416 192 368 192
WIRE 608 192 608 -48
WIRE 608 192 496 192
WIRE 16 208 16 176
WIRE -32 240 -32 192
WIRE 64 240 -32 240
WIRE 368 240 320 240
WIRE 368 288 368 240
WIRE 416 288 368 288
WIRE 608 288 608 192
WIRE 608 288 496 288
WIRE 368 384 368 288
WIRE 368 384 192 384
WIRE 464 384 368 384
WIRE 608 384 608 288
WIRE 608 384 528 384
WIRE 192 400 192 384
WIRE 368 400 368 384
WIRE 192 496 192 480
WIRE 368 496 368 464
FLAG 416 112 0
FLAG 512 128 0
FLAG 368 496 0
FLAG 16 208 0
FLAG 192 496 0
SYMBOL cap 400 48 R0
SYMATTR InstName C1
SYMATTR Value 2µ
SYMBOL voltage 512 32 R0
WINDOW 123 0 0 Left 0
WINDOW 39 0 0 Left 0
SYMATTR InstName V1
SYMATTR Value 4.5
SYMBOL res 512 176 R90
WINDOW 0 0 56 VBottom 2
WINDOW 3 32 56 VTop 2
SYMATTR InstName R1
SYMATTR Value 20k
SYMBOL res 512 272 R90
WINDOW 0 0 56 VBottom 2
WINDOW 3 32 56 VTop 2
SYMATTR InstName R2
SYMATTR Value 86k
SYMBOL cap 528 368 R90
WINDOW 0 0 32 VBottom 2
WINDOW 3 32 32 VTop 2
SYMATTR InstName C2
SYMATTR Value 2n
SYMBOL cap 384 464 R180
WINDOW 0 24 56 Left 2
WINDOW 3 24 8 Left 2
SYMATTR InstName C3
SYMATTR Value 100µ
SYMBOL cap -48 128 R0
SYMATTR InstName C4
SYMATTR Value 10µ
SYMBOL res 176 384 R0
SYMATTR InstName R3
SYMATTR Value {R}
SYMBOL LT1054 192 144 R0
SYMATTR InstName U2
TEXT -48 520 Left 2 !.tran 100ms
TEXT -48 544 Left 2 !.step param R list 10 100 1k 10k 100k
