Version 4
SHEET 1 1544 948
WIRE 928 -96 896 -96
WIRE 528 -80 480 -80
WIRE 640 -80 608 -80
WIRE 1120 -64 1088 -64
WIRE 1216 -64 1200 -64
WIRE 1376 -64 1360 -64
WIRE 1488 -64 1456 -64
WIRE 816 -16 816 -96
WIRE 816 -16 800 -16
WIRE 832 -16 816 -16
WIRE 928 0 928 -96
WIRE 928 0 896 0
WIRE 944 0 928 0
WIRE 1088 0 1088 -64
WIRE 1088 0 1024 0
WIRE 480 16 480 -80
WIRE 528 16 480 16
WIRE 640 16 640 -80
WIRE 640 16 592 16
WIRE 832 16 816 16
WIRE 1088 32 1088 0
WIRE 1120 32 1088 32
WIRE 816 48 816 16
WIRE 1216 48 1216 -64
WIRE 1216 48 1184 48
WIRE 1248 48 1216 48
WIRE 1360 48 1360 -64
WIRE 1360 48 1328 48
WIRE 1392 48 1360 48
WIRE 1120 64 1088 64
WIRE 1488 64 1488 -64
WIRE 1488 64 1456 64
WIRE 1392 80 1360 80
WIRE 480 96 480 16
WIRE 480 96 160 96
WIRE 528 96 480 96
WIRE 640 112 640 16
WIRE 640 112 592 112
WIRE 688 112 640 112
WIRE 816 112 768 112
WIRE 944 112 816 112
WIRE 1088 112 1088 64
WIRE 1088 112 1024 112
WIRE 1360 112 1360 80
WIRE -32 128 -160 128
WIRE 528 128 480 128
WIRE 816 128 816 112
WIRE 1088 144 1088 112
WIRE 384 160 160 160
WIRE 480 160 480 128
WIRE -160 224 -160 128
WIRE 384 224 384 160
WIRE 384 224 304 224
WIRE 816 224 816 192
WIRE 384 256 384 224
WIRE 1088 272 1088 224
WIRE -160 320 -160 288
WIRE 400 336 400 320
WIRE 304 352 304 224
WIRE 368 352 368 320
WIRE 368 352 304 352
WIRE 400 352 400 336
WIRE 64 368 64 336
WIRE 400 448 400 432
WIRE -528 640 -528 608
WIRE -400 640 -400 608
WIRE -288 640 -288 608
WIRE -32 640 -32 608
WIRE 80 640 80 608
WIRE 192 640 192 608
FLAG 64 368 0
FLAG -160 320 0
FLAG -32 640 0
FLAG 80 640 0
FLAG 192 640 0
FLAG -32 528 15.5kHz
FLAG 224 208 15.5kHz
FLAG 80 528 30.9kHz
FLAG 160 224 30.9kHz
FLAG 192 528 40.6kHz
FLAG 208 272 40.6kHz
FLAG 400 448 0
FLAG 400 336 Y
FLAG -400 640 0
FLAG -288 640 0
FLAG -528 640 0
FLAG 480 160 0
FLAG 816 224 0
FLAG 1088 272 0
FLAG 816 48 0
FLAG 720 -16 Y
FLAG 1360 112 0
FLAG -288 528 -4V
FLAG 416 288 -4V
FLAG 560 144 -4V
FLAG 864 32 -4V
FLAG 1152 80 -4V
FLAG 1424 96 -4V
FLAG -400 528 4V
FLAG 352 288 4V
FLAG 560 80 4V
FLAG 864 -32 4V
FLAG 1152 16 4V
FLAG -528 528 4.5V
FLAG 1424 32 4.5V
SYMBOL Switches\\ADG779 64 176 M0
SYMATTR InstName U1
SYMBOL cap -176 224 R0
SYMATTR InstName C1
SYMATTR Value 33n
SYMBOL voltage -32 512 R0
WINDOW 3 -55 387 VLeft 2
WINDOW 123 0 0 Left 0
WINDOW 39 0 0 Left 0
SYMATTR InstName V1
SYMATTR Value PULSE(0 3.3 3.2e-5 1n 1n 3.2e-5 6.4e-5)
SYMBOL voltage 80 512 R0
WINDOW 3 -46 -80 VRight 2
WINDOW 123 0 0 Left 0
WINDOW 39 0 0 Left 0
SYMATTR InstName V2
SYMATTR Value PULSE(0 3.3 1.62e-5 1n 1n 1.62e-5 3.23e-5)
SYMBOL voltage 192 512 R0
WINDOW 3 -45 -83 VRight 2
WINDOW 123 0 0 Left 0
WINDOW 39 0 0 Left 0
SYMATTR InstName V3
SYMATTR Value PULSE(0 3.3 1.07e-5 1n 1n 1.07e-5 2.15e-5)
SYMBOL voltage 400 336 R0
WINDOW 123 0 0 Left 0
WINDOW 39 0 0 Left 0
SYMATTR InstName V4
SYMATTR Value 2
SYMBOL OpAmps\\AD8034 320 288 R270
SYMATTR InstName U2
SYMBOL voltage -400 512 R0
WINDOW 123 0 0 Left 0
WINDOW 39 0 0 Left 0
SYMATTR InstName V5
SYMATTR Value 4
SYMBOL voltage -288 512 R0
WINDOW 123 0 0 Left 0
WINDOW 39 0 0 Left 0
SYMATTR InstName V6
SYMATTR Value -4
SYMBOL voltage -528 512 R0
WINDOW 123 0 0 Left 0
WINDOW 39 0 0 Left 0
SYMATTR InstName V8
SYMATTR Value 4.5
SYMBOL OpAmps\\AD8034 560 48 R0
SYMATTR InstName U3
SYMBOL cap 592 0 R90
WINDOW 0 0 32 VBottom 2
WINDOW 3 32 32 VTop 2
SYMATTR InstName C2
SYMATTR Value 220n
SYMBOL res 624 -96 R90
WINDOW 0 0 56 VBottom 2
WINDOW 3 32 56 VTop 2
SYMATTR InstName R1
SYMATTR Value 1k
SYMBOL res 784 96 R90
WINDOW 0 0 56 VBottom 2
WINDOW 3 32 56 VTop 2
SYMATTR InstName R2
SYMATTR Value 1k
SYMBOL cap 800 128 R0
SYMATTR InstName C3
SYMATTR Value 1µ
SYMBOL OpAmps\\opamp2 864 -64 R0
WINDOW 3 9 93 Left 2
SYMATTR InstName U4
SYMATTR Value opa348
SYMBOL res 1040 96 R90
WINDOW 0 0 56 VBottom 2
WINDOW 3 32 56 VTop 2
SYMATTR InstName R3
SYMATTR Value 47k
SYMBOL res 1104 240 R180
WINDOW 0 36 76 Left 2
WINDOW 3 36 40 Left 2
SYMATTR InstName R4
SYMATTR Value 47k
SYMBOL res 1040 -16 R90
WINDOW 0 0 56 VBottom 2
WINDOW 3 32 56 VTop 2
SYMATTR InstName R5
SYMATTR Value 47k
SYMBOL res 1216 -80 R90
WINDOW 0 0 56 VBottom 2
WINDOW 3 32 56 VTop 2
SYMATTR InstName R6
SYMATTR Value 47k
SYMBOL res 912 -112 R90
WINDOW 0 0 56 VBottom 2
WINDOW 3 32 56 VTop 2
SYMATTR InstName R7
SYMATTR Value 10k
SYMBOL res 816 -32 R90
WINDOW 0 0 56 VBottom 2
WINDOW 3 32 56 VTop 2
SYMATTR InstName R8
SYMATTR Value 20k
SYMBOL res 1472 -80 R90
WINDOW 0 0 56 VBottom 2
WINDOW 3 32 56 VTop 2
SYMATTR InstName R9
SYMATTR Value 20k
SYMBOL res 1344 32 R90
WINDOW 0 0 56 VBottom 2
WINDOW 3 32 56 VTop 2
SYMATTR InstName R10
SYMATTR Value 10k
SYMBOL OpAmps\\AD8034 1152 -16 R0
SYMATTR InstName U5
SYMBOL OpAmps\\AD8034 1424 0 R0
SYMATTR InstName U6
TEXT 304 504 Left 2 !.inc opa348.lib
TEXT 304 528 Left 2 !.inc TLV2372.lib
TEXT 304 552 Left 2 !.inc opamp.sub
TEXT 304 576 Left 2 !.tran 0 10m 1m
